Version 4.1
SHEET 1 988 680
WIRE 256 112 256 80
WIRE 256 112 208 112
WIRE 256 160 256 112
WIRE 256 160 208 160
WIRE 208 224 208 208
WIRE 272 224 208 224
WIRE 160 240 160 192
WIRE 160 240 112 240
WIRE 208 240 208 224
WIRE 256 288 208 288
WIRE 160 320 160 240
WIRE 256 336 256 288
WIRE 256 336 208 336
WIRE 256 368 256 336
FLAG 256 368 0
FLAG 112 240 A
FLAG 272 224 Z
FLAG -48 192 0
FLAG -48 112 VSS
FLAG -48 272 A
FLAG -48 352 0
FLAG 256 80 VSS
SYMBOL voltage -48 96 R0
SYMATTR InstName V1
SYMATTR Value 1
SYMBOL voltage -48 256 R0
WINDOW 123 0 0 Left 0
WINDOW 39 0 0 Left 0
SYMATTR InstName V2
SYMATTR Value ""
SYMBOL pmos4 160 112 R0
SYMATTR InstName M1
SYMBOL nmos4 160 240 R0
SYMATTR InstName M2
TEXT 776 232 Left 2 !.dc V2 0 1 0.001
